$ NASTRAN input file created by the Patran 2010.2.3 64-Bit (MD Enabled)
$ input file translator on September 14, 2012 at 10:58:05.
$ Direct Text Input for Nastran System Cell Section
$ Direct Text Input for File Management Section
$ Direct Text Input for Executive Control
$ Linear Static Analysis, Database
SOL 101
CEND
$ Direct Text Input for Global Case Control Data
TITLE = MD Nastran job created on 14-Sep-12 at 10:57:16
ECHO = NONE
SUBCASE 1
   SUBTITLE=case1
   SPC = 2
   LOAD = 1
   DISPLACEMENT(SORT1,REAL)=ALL
   SPCFORCES(SORT1,REAL)=ALL
   STRESS(SORT1,REAL,VONMISES,BILIN)=ALL
   FORCE(SORT1,REAL,BILIN)=ALL
$ Direct Text Input for this Subcase
SUBCASE 2
   SUBTITLE=case2
   SPC = 6
   LOAD = 2
   DISPLACEMENT(SORT1,REAL)=ALL
   SPCFORCES(SORT1,REAL)=ALL
   STRESS(SORT1,REAL,VONMISES,BILIN)=ALL
   FORCE(SORT1,REAL,BILIN)=ALL
$ Direct Text Input for this Subcase
BEGIN BULK
$ Direct Text Input for Bulk Data
PARAM    POST    0
PARAM   PRTMAXIM YES
$ Elements and Element Properties for region : cshear
PSHEAR   1       1      .01
$ Pset: "cshear" will be imported as: "pshear.1"
CSHEAR   1       1       1       2       5       4
CSHEAR   2       1       2       3       6       5
CSHEAR   50      1       3       8       11      6
CSHEAR   51      1       8       9       12      11
CSHEAR   101     1       101     102     105     104
CSHEAR   102     1       102     103     106     105
CSHEAR   150     1       103     108     111     106
CSHEAR   151     1       108     109     112     111
$ Elements and Element Properties for region : shell
PSHELL   2       1      .01      1               1
$ Pset: "shell" will be imported as: "pshell.2"
CQUAD4   7       2       1       2       17      16
CQUAD4   8       2       2       3       18      17
CQUAD4   9       2       1       2       23      22
CQUAD4   10      2       2       3       24      23
CQUAD4   11      2       3       8       29      18
CQUAD4   12      2       8       9       30      29
CQUAD4   13      2       3       8       35      24
CQUAD4   14      2       8       9       36      35
CQUAD4   107     2       101     102     117     116
CQUAD4   108     2       102     103     118     117
CQUAD4   109     2       101     102     123     122
CQUAD4   110     2       102     103     124     123
CQUAD4   111     2       103     108     129     118
CQUAD4   112     2       108     109     130     129
CQUAD4   113     2       103     108     135     124
CQUAD4   114     2       108     109     136     135
$ Elements and Element Properties for region : bar
PBARL    3       1               BAR
        .2      .2
$ Pset: "bar" will be imported as: "pbarl.3"
CBAR     15      3       4       5       0.     1.       0.
CBAR     16      3       5       6       0.     1.       0.
CBAR     17      3       6       11      0.     1.       0.
CBAR     18      3       11      12      0.     1.       0.
CBAR     115     3       104     105     0.     1.       0.
CBAR     116     3       105     106     0.     1.       0.
CBAR     117     3       106     111     0.     1.       0.
CBAR     118     3       111     112     0.     1.       0.
$ Referenced Material Records
$ Material Record : al
$ Description of Material : Date: 14-Sep-12           Time: 10:51:28
MAT1     1      1.+7            .3      .1
$ Nodes of the Entire Model
GRID     1              1.       0.      0.
GRID     2              2.       0.      0.
GRID     3              3.       0.      0.
GRID     4              1.      1.       0.
GRID     5              2.      1.       0.
GRID     6              3.      1.       0.
GRID     8              4.       0.      0.
GRID     9              5.       0.      0.
GRID     11             4.      1.       0.
GRID     12             5.      1.       0.
GRID     16             1.       0.     .5
GRID     17             2.       0.     .5
GRID     18             3.       0.     .5
GRID     22             1.       0.     -.5
GRID     23             2.       0.     -.5
GRID     24             3.       0.     -.5
GRID     29             4.       0.     .5
GRID     30             5.       0.     .5
GRID     35             4.       0.     -.5
GRID     36             5.       0.     -.5
$ ... 20 like lines cut
$ Loads for Load Case : case1
SPCADD   2       1       3       8
$ Enforced Displacements for Load Set : enforce1a
$ Dummy Force Required to Activate the Following Enforced Displacements
FORCE    1       9               0.     .57735  .57735  .57735
SPCD     1       9       2      .05      12      2      .05
SPCD     1       30      2      .05      36      2      .05
$ Enforced Displacements for Load Set : enforce1b
$ Dummy Force Required to Activate the Following Enforced Displacements
FORCE    1       109             0.     .57735  .57735  .57735
SPCD     1       109     2      .025     112     2      .025
SPCD     1       130     2      .025     136     2      .025
$ Displacement Constraints of Load Set : enforce1a
SPC1     1       123     9       12      30      36
$ Displacement Constraints of Load Set : enforce1b
SPC1     3       123     109     112     130     136
$ Displacement Constraints of Load Set : fix
SPC1     8       123456  1       4       16      22      101     104
         116     122
$ Loads for Load Case : case2
SPCADD   6       5       7       9
$ Enforced Displacements for Load Set : enforce2a
$ Dummy Force Required to Activate the Following Enforced Displacements
FORCE    2       109             0.     .57735  .57735  .57735
SPCD     2       109     2      .05      112     2      .05
SPCD     2       130     2      .05      136     2      .05
$ Enforced Displacements for Load Set : enforce2b
$ Dummy Force Required to Activate the Following Enforced Displacements
FORCE    2       9               0.     .57735  .57735  .57735
SPCD     2       9       2      .025     12      2      .025
SPCD     2       30      2      .025     36      2      .025
$ Displacement Constraints of Load Set : enforce2a
SPC1     5       123     109     112     130     136
$ Displacement Constraints of Load Set : enforce2b
SPC1     7       123     9       12      30      36
$ Displacement Constraints of Load Set : fix
SPC1     9       123456  1       4       16      22      101     104
         116     122
$ Referenced Coordinate Frames
ENDDATA 2bb686f2
