$ NASTRAN input file created by the Patran 2011 64-Bit input file
$ translator on January   18, 2012 at 13:07:02.
$ Direct Text Input for Nastran System Cell Section
$ Direct Text Input for File Management Section
$ Direct Text Input for Executive Control
$ Normal Modes Analysis, Database
SOL 103
CEND
$ Direct Text Input for Global Case Control Data
TITLE = MSC.Nastran job created on 18-Jan-12 at 13:05:42
ECHO = NONE
RESVEC = YES
   BCONTACT = 0
SUBCASE 1
   SUBTITLE=Default
   METHOD = 1
   BCONTACT = 1
   SPC = 2
   VECTOR(SORT1,REAL)=ALL
   SPCFORCES(SORT1,REAL)=ALL
   BOUTPUT(SORT1,REAL)=ALL
$ Direct Text Input for this Subcase
BEGIN BULK
$ Direct Text Input for Bulk Data
PARAM    POST    0
PARAM    WTMASS .00259
PARAM   PRTMAXIM YES
EIGRL    1                       10      0                       MASS
BCTABLE  0                       1
         SLAVE   2                                       1
                 0       0       0
         MASTERS 1
BCTABLE  1                       1
         SLAVE   2                                       1
                 0       0       0
         MASTERS 1
$ Elements and Element Properties for region : s1
PSOLID   1       1       0
$ Pset: "s1" will be imported as: "psolid.1"
CHEXA    1       1       1       2       27      26      126     127
         152     151
CHEXA    2       1       2       3       28      27      127     128
         153     152
CHEXA    3       1       3       4       29      28      128     129
         154     153
CHEXA    4       1       4       5       30      29      129     130
         155     154
CHEXA    5       1       5       6       31      30      130     131
         156     155
CHEXA    6       1       6       7       32      31      131     132
         157     156
CHEXA    7       1       7       8       33      32      132     133
         158     157
CHEXA    8       1       8       9       34      33      133     134
         159     158
CHEXA    9       1       9       10      35      34      134     135
         160     159
CHEXA    10      1       10      11      36      35      135     136
         161     160
CHEXA    11      1       11      12      37      36      136     137
         162     161
CHEXA    12      1       12      13      38      37      137     138
         163     162
CHEXA    13      1       13      14      39      38      138     139
         164     163
CHEXA    14      1       14      15      40      39      139     140
         165     164
CHEXA    15      1       15      16      41      40      140     141
         166     165
CHEXA    16      1       16      17      42      41      141     142
         167     166
CHEXA    17      1       17      18      43      42      142     143
         168     167
CHEXA    18      1       18      19      44      43      143     144
         169     168
CHEXA    19      1       19      20      45      44      144     145
         170     169
CHEXA    20      1       20      21      46      45      145     146
         171     170
$ ... 728 like lines cut
$ Elements and Element Properties for region : s2
PSOLID   2       1       0
$ Pset: "s2" will be imported as: "psolid.2"
CTETRA   385     2       738     737     736     735     742     743
         744     739     740     741
CTETRA   386     2       738     734     733     732     748     749
         750     745     746     747
CTETRA   387     2       731     730     2560    729     754     755
         756     751     752     753
CTETRA   388     2       731     728     2562    727     760     761
         762     757     758     759
CTETRA   389     2       731     726     728     727     764     765
         760     757     763     758
CTETRA   390     2       731     725     726     724     769     770
         764     766     767     768
CTETRA   391     2       731     723     2560    2558    773     774
         756     771     772     2717
CTETRA   392     2       2558    731     728     2559    771     760
         777     2691    775     776
CTETRA   393     2       731     723     728     725     773     780
         760     769     778     779
CTETRA   394     2       722     2569    721     720     784     785
         786     781     782     783
CTETRA   395     2       722     719     720     718     790     791
         781     787     788     789
CTETRA   396     2       722     2570    717     2567    794     795
         796     792     2676    793
CTETRA   397     2       722     719     717     716     790     800
         796     797     798     799
CTETRA   398     2       722     715     2568    2566    803     804
         805     801     802     2725
CTETRA   399     2       2566    722     717     2567    801     796
         806     2679    792     793
CTETRA   400     2       722     718     715     717     787     809
         803     796     807     808
CTETRA   401     2       714     713     2565    712     813     814
         815     810     811     812
CTETRA   402     2       714     713     711     715     813     819
         820     816     817     818
CTETRA   403     2       714     2566    710     2563    823     824
         825     821     2682    822
CTETRA   404     2       714     727     2564    2562    827     828
         829     826     759     2721
$ ... 2672 like lines cut
$ Referenced Material Records
$ Material Record : Plastic
$ Description of Material : Date: 18-Jan-12           Time: 13:04:09
MAT1     1      1.+6            .3      .06
$ Nodes of the Entire Model
GRID*    1                              -5.96046-8      -2.7426-9
*       1.
GRID*    2                              .249999         -2.7426-9
*       1.
GRID*    3                              .5              -2.7426-9
*       1.
GRID*    4                              .75             -2.7426-9
*       1.
GRID*    5                              1.              -2.7426-9
*       1.
GRID*    6                              1.25            -2.7426-9
*       1.
GRID*    7                              1.5             -2.7426-9
*       1.
GRID*    8                              1.75            -2.7426-9
*       1.
GRID*    9                              2.              -2.7426-9
*       1.
GRID*    10                             2.25            -2.7426-9
*       1.
GRID*    11                             2.5             -2.7426-9
*       1.
GRID*    12                             2.75            -2.7426-9
*       1.
GRID*    13                             3.              -2.7426-9
*       1.
GRID*    14                             3.25            -2.7426-9
*       1.
GRID*    15                             3.5             -2.7426-9
*       1.
GRID*    16                             3.75            -2.7426-9
*       1.
GRID*    17                             4.              -2.7426-9
*       1.
GRID*    18                             4.25            -2.7426-9
*       1.
GRID*    19                             4.5             -2.7426-9
*       1.
GRID*    20                             4.75            -2.7426-9
*       1.
$ ... 212 like lines cut
GRID     127            .25     .25     1.
GRID     128            .5      .25     1.
GRID     129            .75     .25     1.
GRID     130            1.      .25     1.
GRID     131            1.25    .25     1.
GRID     132            1.5     .25     1.
GRID     133            1.75    .25     1.
GRID     134            2.      .25     1.
GRID     135            2.25    .25     1.
GRID     136            2.5     .25     1.
GRID     137            2.75    .25     1.
GRID     138            3.      .25     1.
GRID     139            3.25    .25     1.
GRID     140            3.5     .25     1.
GRID     141            3.75    .25     1.
GRID     142            4.      .25     1.
GRID     143            4.25    .25     1.
GRID     144            4.5     .25     1.
GRID     145            4.75    .25     1.
GRID     146            5.      .25     1.
$ ... 4 like lines cut
GRID*    151                            -5.96046-8      .25
*       .75
GRID     152            .25     .25     .75
GRID     153            .5      .25     .75
GRID     154            .75     .25     .75
GRID     155            1.      .25     .75
GRID     156            1.25    .25     .75
GRID     157            1.5     .25     .75
GRID     158            1.75    .25     .75
GRID     159            2.      .25     .75
GRID     160            2.25    .25     .75
GRID     161            2.5     .25     .75
GRID     162            2.75    .25     .75
GRID     163            3.      .25     .75
GRID     164            3.25    .25     .75
GRID     165            3.5     .25     .75
GRID     166            3.75    .25     .75
GRID     167            4.      .25     .75
GRID     168            4.25    .25     .75
GRID     169            4.5     .25     .75
GRID     170            4.75    .25     .75
GRID     171            5.      .25     .75
$ ... 4 like lines cut
GRID*    176                            -5.96046-8      .25
*       .5
GRID     177            .25     .25     .5
GRID     178            .5      .25     .5
GRID     179            .75     .25     .5
GRID     180            1.      .25     .5
GRID     181            1.25    .25     .5
GRID     182            1.5     .25     .5
GRID     183            1.75    .25     .5
GRID     184            2.      .25     .5
GRID     185            2.25    .25     .5
GRID     186            2.5     .25     .5
GRID     187            2.75    .25     .5
GRID     188            3.      .25     .5
GRID     189            3.25    .25     .5
GRID     190            3.5     .25     .5
GRID     191            3.75    .25     .5
GRID     192            4.      .25     .5
GRID     193            4.25    .25     .5
GRID     194            4.5     .25     .5
GRID     195            4.75    .25     .5
GRID     196            5.      .25     .5
$ ... 4 like lines cut
GRID*    201                            -5.96046-8      .25
*       .25
GRID     202            .25     .25     .25
GRID     203            .5      .25     .25
GRID     204            .75     .25     .25
GRID     205            1.      .25     .25
GRID     206            1.25    .25     .25
GRID     207            1.5     .25     .25
GRID     208            1.75    .25     .25
GRID     209            2.      .25     .25
GRID     210            2.25    .25     .25
GRID     211            2.5     .25     .25
GRID     212            2.75    .25     .25
GRID     213            3.      .25     .25
GRID     214            3.25    .25     .25
GRID     215            3.5     .25     .25
GRID     216            3.75    .25     .25
GRID     217            4.      .25     .25
GRID     218            4.25    .25     .25
GRID     219            4.5     .25     .25
GRID     220            4.75    .25     .25
GRID     221            5.      .25     .25
$ ... 4 like lines cut
GRID*    226                            -5.96046-8      .25
*        0.
GRID     227            .25     .25      0.
GRID     228            .5      .25      0.
GRID     229            .75     .25      0.
GRID     230            1.      .25      0.
GRID     231            1.25    .25      0.
GRID     232            1.5     .25      0.
GRID     233            1.75    .25      0.
GRID     234            2.      .25      0.
GRID     235            2.25    .25      0.
GRID     236            2.5     .25      0.
GRID     237            2.75    .25      0.
GRID     238            3.      .25      0.
GRID     239            3.25    .25      0.
GRID     240            3.5     .25      0.
GRID     241            3.75    .25      0.
GRID     242            4.      .25      0.
GRID     243            4.25    .25      0.
GRID     244            4.5     .25      0.
GRID     245            4.75    .25      0.
GRID     246            5.      .25      0.
$ ... 4 like lines cut
GRID*    251                            -5.96046-8      .5
*       1.
GRID     252            .25     .5      1.
GRID     253            .5      .5      1.
GRID     254            .75     .5      1.
GRID     255            1.      .5      1.
GRID     256            1.25    .5      1.
GRID     257            1.5     .5      1.
GRID     258            1.75    .5      1.
GRID     259            2.      .5      1.
GRID     260            2.25    .5      1.
GRID     261            2.5     .5      1.
GRID     262            2.75    .5      1.
GRID     263            3.      .5      1.
GRID     264            3.25    .5      1.
GRID     265            3.5     .5      1.
GRID     266            3.75    .5      1.
GRID     267            4.      .5      1.
GRID     268            4.25    .5      1.
GRID     269            4.5     .5      1.
GRID     270            4.75    .5      1.
GRID     271            5.      .5      1.
$ ... 4 like lines cut
GRID*    276                            -5.96046-8      .5
*       .75
GRID     277            .25     .5      .75
GRID     278            .5      .5      .75
GRID     279            .75     .5      .75
GRID     280            1.      .5      .75
GRID     281            1.25    .5      .75
GRID     282            1.5     .5      .75
GRID     283            1.75    .5      .75
GRID     284            2.      .5      .75
GRID     285            2.25    .5      .75
GRID     286            2.5     .5      .75
GRID     287            2.75    .5      .75
GRID     288            3.      .5      .75
GRID     289            3.25    .5      .75
GRID     290            3.5     .5      .75
GRID     291            3.75    .5      .75
GRID     292            4.      .5      .75
GRID     293            4.25    .5      .75
GRID     294            4.5     .5      .75
GRID     295            4.75    .5      .75
GRID     296            5.      .5      .75
$ ... 4 like lines cut
GRID*    301                            -5.96046-8      .5
*       .5
GRID     302            .25     .5      .5
GRID     303            .5      .5      .5
GRID     304            .75     .5      .5
GRID     305            1.      .5      .5
GRID     306            1.25    .5      .5
GRID     307            1.5     .5      .5
GRID     308            1.75    .5      .5
GRID     309            2.      .5      .5
GRID     310            2.25    .5      .5
GRID     311            2.5     .5      .5
GRID     312            2.75    .5      .5
GRID     313            3.      .5      .5
GRID     314            3.25    .5      .5
GRID     315            3.5     .5      .5
GRID     316            3.75    .5      .5
GRID     317            4.      .5      .5
GRID     318            4.25    .5      .5
GRID     319            4.5     .5      .5
GRID     320            4.75    .5      .5
GRID     321            5.      .5      .5
$ ... 4 like lines cut
GRID*    326                            -5.96046-8      .5
*       .25
GRID     327            .25     .5      .25
GRID     328            .5      .5      .25
GRID     329            .75     .5      .25
GRID     330            1.      .5      .25
GRID     331            1.25    .5      .25
GRID     332            1.5     .5      .25
GRID     333            1.75    .5      .25
GRID     334            2.      .5      .25
GRID     335            2.25    .5      .25
GRID     336            2.5     .5      .25
GRID     337            2.75    .5      .25
GRID     338            3.      .5      .25
GRID     339            3.25    .5      .25
GRID     340            3.5     .5      .25
GRID     341            3.75    .5      .25
GRID     342            4.      .5      .25
GRID     343            4.25    .5      .25
GRID     344            4.5     .5      .25
GRID     345            4.75    .5      .25
GRID     346            5.      .5      .25
$ ... 4 like lines cut
GRID*    351                            -5.96046-8      .5
*        0.
GRID     352            .25     .5       0.
GRID     353            .5      .5       0.
GRID     354            .75     .5       0.
GRID     355            1.      .5       0.
GRID     356            1.25    .5       0.
GRID     357            1.5     .5       0.
GRID     358            1.75    .5       0.
GRID     359            2.      .5       0.
GRID     360            2.25    .5       0.
GRID     361            2.5     .5       0.
GRID     362            2.75    .5       0.
GRID     363            3.      .5       0.
GRID     364            3.25    .5       0.
GRID     365            3.5     .5       0.
GRID     366            3.75    .5       0.
GRID     367            4.      .5       0.
GRID     368            4.25    .5       0.
GRID     369            4.5     .5       0.
GRID     370            4.75    .5       0.
GRID     371            5.      .5       0.
$ ... 4 like lines cut
GRID*    376                            -5.96046-8      .75
*       1.
GRID     377            .25     .75     1.
GRID     378            .5      .75     1.
GRID     379            .75     .75     1.
GRID     380            1.      .75     1.
GRID     381            1.25    .75     1.
GRID     382            1.5     .75     1.
GRID     383            1.75    .75     1.
GRID     384            2.      .75     1.
GRID     385            2.25    .75     1.
GRID     386            2.5     .75     1.
GRID     387            2.75    .75     1.
GRID     388            3.      .75     1.
GRID     389            3.25    .75     1.
GRID     390            3.5     .75     1.
GRID     391            3.75    .75     1.
GRID     392            4.      .75     1.
GRID     393            4.25    .75     1.
GRID     394            4.5     .75     1.
GRID     395            4.75    .75     1.
GRID     396            5.      .75     1.
$ ... 4 like lines cut
GRID*    401                            -5.96046-8      .75
*       .75
GRID     402            .25     .75     .75
GRID     403            .5      .75     .75
GRID     404            .75     .75     .75
GRID     405            1.      .75     .75
GRID     406            1.25    .75     .75
GRID     407            1.5     .75     .75
GRID     408            1.75    .75     .75
GRID     409            2.      .75     .75
GRID     410            2.25    .75     .75
GRID     411            2.5     .75     .75
GRID     412            2.75    .75     .75
GRID     413            3.      .75     .75
GRID     414            3.25    .75     .75
GRID     415            3.5     .75     .75
GRID     416            3.75    .75     .75
GRID     417            4.      .75     .75
GRID     418            4.25    .75     .75
GRID     419            4.5     .75     .75
GRID     420            4.75    .75     .75
GRID     421            5.      .75     .75
$ ... 4 like lines cut
GRID*    426                            -5.96046-8      .75
*       .5
GRID     427            .25     .75     .5
GRID     428            .5      .75     .5
GRID     429            .75     .75     .5
GRID     430            1.      .75     .5
GRID     431            1.25    .75     .5
GRID     432            1.5     .75     .5
GRID     433            1.75    .75     .5
GRID     434            2.      .75     .5
GRID     435            2.25    .75     .5
GRID     436            2.5     .75     .5
GRID     437            2.75    .75     .5
GRID     438            3.      .75     .5
GRID     439            3.25    .75     .5
GRID     440            3.5     .75     .5
GRID     441            3.75    .75     .5
GRID     442            4.      .75     .5
GRID     443            4.25    .75     .5
GRID     444            4.5     .75     .5
GRID     445            4.75    .75     .5
GRID     446            5.      .75     .5
$ ... 4 like lines cut
GRID*    451                            -5.96046-8      .75
*       .25
GRID     452            .25     .75     .25
GRID     453            .5      .75     .25
GRID     454            .75     .75     .25
GRID     455            1.      .75     .25
GRID     456            1.25    .75     .25
GRID     457            1.5     .75     .25
GRID     458            1.75    .75     .25
GRID     459            2.      .75     .25
GRID     460            2.25    .75     .25
GRID     461            2.5     .75     .25
GRID     462            2.75    .75     .25
GRID     463            3.      .75     .25
GRID     464            3.25    .75     .25
GRID     465            3.5     .75     .25
GRID     466            3.75    .75     .25
GRID     467            4.      .75     .25
GRID     468            4.25    .75     .25
GRID     469            4.5     .75     .25
GRID     470            4.75    .75     .25
GRID     471            5.      .75     .25
$ ... 4 like lines cut
GRID*    476                            -5.96046-8      .75
*        0.
GRID     477            .25     .75      0.
GRID     478            .5      .75      0.
GRID     479            .75     .75      0.
GRID     480            1.      .75      0.
GRID     481            1.25    .75      0.
GRID     482            1.5     .75      0.
GRID     483            1.75    .75      0.
GRID     484            2.      .75      0.
GRID     485            2.25    .75      0.
GRID     486            2.5     .75      0.
GRID     487            2.75    .75      0.
GRID     488            3.      .75      0.
GRID     489            3.25    .75      0.
GRID     490            3.5     .75      0.
GRID     491            3.75    .75      0.
GRID     492            4.      .75      0.
GRID     493            4.25    .75      0.
GRID     494            4.5     .75      0.
GRID     495            4.75    .75      0.
GRID     496            5.      .75      0.
$ ... 4 like lines cut
GRID*    501                            -5.96046-8      1.
*       1.
GRID     502            .25     1.      1.
GRID     503            .5      1.      1.
GRID     504            .75     1.      1.
GRID     505            1.      1.      1.
GRID     506            1.25    1.      1.
GRID     507            1.5     1.      1.
GRID     508            1.75    1.      1.
GRID     509            2.      1.      1.
GRID     510            2.25    1.      1.
GRID     511            2.5     1.      1.
GRID     512            2.75    1.      1.
GRID     513            3.      1.      1.
GRID     514            3.25    1.      1.
GRID     515            3.5     1.      1.
GRID     516            3.75    1.      1.
GRID     517            4.      1.      1.
GRID     518            4.25    1.      1.
GRID     519            4.5     1.      1.
GRID     520            4.75    1.      1.
GRID     521            5.      1.      1.
$ ... 4 like lines cut
GRID*    526                            -5.96046-8      1.
*       .75
GRID     527            .25     1.      .75
GRID     528            .5      1.      .75
GRID     529            .75     1.      .75
GRID     530            1.      1.      .75
GRID     531            1.25    1.      .75
GRID     532            1.5     1.      .75
GRID     533            1.75    1.      .75
GRID     534            2.      1.      .75
GRID     535            2.25    1.      .75
GRID     536            2.5     1.      .75
GRID     537            2.75    1.      .75
GRID     538            3.      1.      .75
GRID     539            3.25    1.      .75
GRID     540            3.5     1.      .75
GRID     541            3.75    1.      .75
GRID     542            4.      1.      .75
GRID     543            4.25    1.      .75
GRID     544            4.5     1.      .75
GRID     545            4.75    1.      .75
GRID     546            5.      1.      .75
$ ... 4 like lines cut
GRID*    551                            -5.96046-8      1.
*       .5
GRID     552            .25     1.      .5
GRID     553            .5      1.      .5
GRID     554            .75     1.      .5
GRID     555            1.      1.      .5
GRID     556            1.25    1.      .5
GRID     557            1.5     1.      .5
GRID     558            1.75    1.      .5
GRID     559            2.      1.      .5
GRID     560            2.25    1.      .5
GRID     561            2.5     1.      .5
GRID     562            2.75    1.      .5
GRID     563            3.      1.      .5
GRID     564            3.25    1.      .5
GRID     565            3.5     1.      .5
GRID     566            3.75    1.      .5
GRID     567            4.      1.      .5
GRID     568            4.25    1.      .5
GRID     569            4.5     1.      .5
GRID     570            4.75    1.      .5
GRID     571            5.      1.      .5
$ ... 4 like lines cut
GRID*    576                            -5.96046-8      1.
*       .25
GRID     577            .25     1.      .25
GRID     578            .5      1.      .25
GRID     579            .75     1.      .25
GRID     580            1.      1.      .25
GRID     581            1.25    1.      .25
GRID     582            1.5     1.      .25
GRID     583            1.75    1.      .25
GRID     584            2.      1.      .25
GRID     585            2.25    1.      .25
GRID     586            2.5     1.      .25
GRID     587            2.75    1.      .25
GRID     588            3.      1.      .25
GRID     589            3.25    1.      .25
GRID     590            3.5     1.      .25
GRID     591            3.75    1.      .25
GRID     592            4.      1.      .25
GRID     593            4.25    1.      .25
GRID     594            4.5     1.      .25
GRID     595            4.75    1.      .25
GRID     596            5.      1.      .25
$ ... 4 like lines cut
GRID*    601                            -5.96046-8      1.
*        0.
GRID     602            .249999 1.       0.
GRID     603            .5      1.       0.
GRID     604            .75     1.       0.
GRID     605            1.      1.       0.
GRID     606            1.25    1.       0.
GRID     607            1.5     1.       0.
GRID     608            1.75    1.       0.
GRID     609            2.      1.       0.
GRID     610            2.25    1.       0.
GRID     611            2.5     1.       0.
GRID     612            2.75    1.       0.
GRID     613            3.      1.       0.
GRID     614            3.25    1.       0.
GRID     615            3.5     1.       0.
GRID     616            3.75    1.       0.
GRID     617            4.      1.       0.
GRID     618            4.25    1.       0.
GRID     619            4.5     1.       0.
GRID     620            4.75    1.       0.
GRID     621            5.      1.       0.
$ ... 2399 like lines cut
$ Loads for Load Case : Default
SPCADD   2       1
$ Displacement Constraints of Load Set : fix
SPC1     1       123     1       26      51      76      101     126
         151     176     201     226     251     276     301     326
         351     376     401     426     451     476     501     526
         551     576     601
$ Deform Body Contact LBC set: C1
BCBODY   1       3D      DEFORM  2       0
BSURF    2       1       2       3       4       5       6       7
         8       9       10      11      12      13      14      15
         16      17      18      19      20      21      22      23
         24      25      26      27      28      29      30      31
         32      33      34      35      36      37      38      39
         40      41      42      43      44      45      46      47
         48      49      50      51      52      53      54      55
         56      57      58      59      60      61      62      63
         64      65      66      67      68      69      70      71
         72      73      74      75      76      77      78      79
         80      81      82      83      84      85      86      87
         88      89      90      91      92      93      94      95
         96      97      98      99      100     101     102     103
         104     105     106     107     108     109     110     111
         112     113     114     115     116     117     118     119
         120     121     122     123     124     125     126     127
         128     129     130     131     132     133     134     135
         136     137     138     139     140     141     142     143
         144     145     146     147     148     149     150     151
         152     153     154     155     156     157     158     159
         160     161     162     163     164     165     166     167
$ ... 28 like lines cut
$ Deform Body Contact LBC set: C2
BCBODY   2       3D      DEFORM  3       0
BSURF    3       385     386     387     388     389     390     391
         392     393     394     395     396     397     398     399
         400     401     402     403     404     405     406     407
         408     409     410     411     412     413     414     415
         416     417     418     419     420     421     422     423
         424     425     426     427     428     429     430     431
         432     433     434     435     436     437     438     439
         440     441     442     443     444     445     446     447
         448     449     450     451     452     453     454     455
         456     457     458     459     460     461     462     463
         464     465     466     467     468     469     470     471
         472     473     474     475     476     477     478     479
         480     481     482     483     484     485     486     487
         488     489     490     491     492     493     494     495
         496     497     498     499     500     501     502     503
         504     505     506     507     508     509     510     511
         512     513     514     515     516     517     518     519
         520     521     522     523     524     525     526     527
         528     529     530     531     532     533     534     535
         536     537     538     539     540     541     542     543
         544     545     546     547     548     549     550     551
$ ... 149 like lines cut
$ Referenced Coordinate Frames
ENDDATA 0ed4813b
